30
Header
O   3.065892662073007 0.6021136137546066 -0.85805327893009
O   -0.33852824757383665 1.2711365319539467 -2.268154113332317
O   0.4624664077075167 -3.074531897564747 -0.5883682613696367
O   -3.231363335700783 -1.49791728375552 -0.22885537596425998
N   0.27317604644460336 -1.54137292581932 1.0679619414243733
N   -2.1316560263994067 -0.007608152196893335 1.0890093934706901
N   1.6288137813530368 -1.1422870502890201 -0.7835967824751767
N   -1.54892219949837 -0.27553888568727003 -1.14802062939653
C   1.4778772160634 0.5876660490160134 0.8856253260799034
C   -0.5105409019069033 1.51109324533234 0.08918457246354333
C   0.37017610576735666 -0.20011269972404666 1.5850756278267233
C   -0.8951154019445133 0.6873626402470634 1.32001261310495
C   2.198088083153343 1.62896585700549 1.6591603248351867
C   -0.5047200544204233 2.99375520651986 0.12132658434705335
C   2.1433765461681733 0.04575799690671 -0.30619972405652
C   -0.7617193615872633 0.8605926998436667 -1.2130183516970967
C   0.7513490091499634 -1.9949361359989266 -0.12895538868894332
C   -2.3700415001767965 -0.6657860224530701 -0.08903566279757333
H   0.57117221131043 -0.2672879605752 2.655078451223087
H   -1.03156828675527 1.3549662134111433 2.16581128603115
H   2.75425065565272 2.27041430616803 1.0043768188602034
H   1.5256911641244968 2.2182673893835267 2.25741857336851
H   2.8998022944018165 1.1657482403362533 2.3386066110922865
H   -1.5242575420965867 3.36691396191327 0.23635023999735003
H   0.07504153577903666 3.3695543742809067 0.96083562022348
H   -0.09907565548516332 3.38691785613126 -0.80464861789654
H   -0.3919935800692033 -2.1689059573763867 1.482521211037
H   -2.6959638551924834 -0.32620431861665333 1.8563001235784133
H   2.0310549300225067 -1.5045201686267133 -1.6318452353355533
H   -1.74016270036441 -0.7392167235203867 -2.0213038970236568